Version 4
SHEET 1 1524 724
WIRE -560 -224 -608 -224
WIRE -528 -224 -560 -224
WIRE -80 -224 -528 -224
WIRE 304 -224 128 -224
WIRE 544 -224 304 -224
WIRE -144 -192 -160 -192
WIRE -80 -192 -80 -224
WIRE -80 -192 -144 -192
WIRE 128 -192 128 -224
WIRE 128 -192 -80 -192
WIRE 144 -192 128 -192
WIRE 160 -192 144 -192
WIRE 544 -192 544 -224
WIRE 560 -192 544 -192
WIRE 560 -160 560 -192
WIRE -560 -144 -560 -224
WIRE -144 -144 -144 -192
WIRE 96 -144 32 -144
WIRE 144 -144 144 -192
WIRE -16 -128 -96 -128
WIRE 96 -128 96 -144
WIRE 544 -112 544 -192
WIRE 560 -112 544 -112
WIRE -528 -96 -528 -224
WIRE -528 -96 -560 -96
WIRE -160 -96 -160 -192
WIRE -144 -96 -160 -96
WIRE 160 -96 160 -192
WIRE 160 -96 144 -96
WIRE -608 -64 -608 -224
WIRE -144 -48 -176 -48
WIRE 32 -48 32 -144
WIRE 32 -48 -144 -48
WIRE -16 -32 -16 -128
WIRE 144 -32 144 -48
WIRE 144 -32 -16 -32
WIRE -176 -16 -176 -48
WIRE 448 -16 400 -16
WIRE 560 -16 560 -64
WIRE 560 -16 448 -16
WIRE 608 -16 608 -144
WIRE 656 -16 608 -16
WIRE -560 0 -560 -48
WIRE -432 0 -560 0
WIRE -384 0 -432 0
WIRE 144 0 144 -32
WIRE 352 0 304 0
WIRE 400 0 400 -16
WIRE 448 0 448 -16
WIRE 560 0 560 -16
WIRE -560 16 -560 0
WIRE -432 16 -432 0
WIRE -384 16 -384 0
WIRE -176 16 -176 -16
WIRE -176 16 -336 16
WIRE -112 16 -176 16
WIRE 144 16 144 0
WIRE 144 16 -64 16
WIRE 304 16 304 0
WIRE 304 16 144 16
WIRE -176 48 -176 16
WIRE 144 48 144 16
WIRE 560 48 544 48
WIRE -528 64 -560 64
WIRE -112 80 -112 16
WIRE -16 80 -112 80
WIRE 608 80 608 -16
WIRE -608 96 -608 -64
WIRE -176 96 -192 96
WIRE 160 96 144 96
WIRE 544 96 544 48
WIRE 560 96 544 96
WIRE 656 96 656 -16
WIRE 656 96 560 96
WIRE -544 112 -560 112
WIRE -528 112 -528 64
WIRE -528 112 -544 112
WIRE -64 128 -64 16
WIRE -64 128 -128 128
WIRE -16 128 -16 80
WIRE 96 128 -16 128
WIRE -544 144 -544 112
WIRE -192 144 -192 96
WIRE -176 144 -192 144
WIRE 160 144 160 96
WIRE 160 144 144 144
WIRE -192 176 -192 144
WIRE 16 176 -192 176
WIRE 160 176 160 144
WIRE 160 176 16 176
WIRE 432 208 432 48
WIRE 432 208 -48 208
WIRE 16 224 16 176
WIRE -416 304 -416 64
WIRE -48 304 -48 208
WIRE -48 304 -416 304
WIRE -32 304 -48 304
WIRE 32 320 32 272
WIRE 32 320 16 320
WIRE 656 320 656 96
WIRE 656 320 32 320
WIRE 16 336 16 320
FLAG -176 -16 out_p
FLAG 144 0 out_n
FLAG 16 336 0
FLAG 304 -144 0
FLAG -416 384 0
FLAG -544 144 0
SYMBOL voltage 304 -240 R0
WINDOW 123 0 0 Left 0
WINDOW 39 0 0 Left 0
SYMATTR InstName V1
SYMATTR Value 1
SYMBOL voltage -416 288 R0
WINDOW 123 0 0 Left 0
WINDOW 39 0 0 Left 0
SYMATTR InstName V2
SYMATTR Value PULSE(0 1 0 1e-12 1e-12 1e-10 2e-10)
SYMBOL nmos4 -608 16 R0
SYMATTR InstName M1
SYMATTR Value2 l=32e-9 w=320e-9 ad=51200e-18 as=51200e-18 pd=960e-9 ps=960e-9
SYMBOL nmos4 608 0 M0
SYMATTR InstName M2
SYMATTR Value2 l=32e-9 w=320e-9 ad=51200e-18 as=51200e-18 pd=960e-9 ps=960e-9
SYMBOL nmos4 -128 48 M0
SYMATTR InstName M7
SYMATTR Value2 l=32e-9 w=320e-9 ad=51200e-18 as=51200e-18 pd=960e-9 ps=960e-9
SYMBOL nmos4 96 48 R0
SYMATTR InstName M9
SYMATTR Value2 l=32e-9 w=320e-9 ad=51200e-18 as=51200e-18 pd=960e-9 ps=960e-9
SYMBOL nmos4 -32 224 R0
SYMATTR InstName M11
SYMATTR Value2 l=32e-9 w=320e-9 ad=51200e-18 as=51200e-18 pd=960e-9 ps=960e-9
SYMBOL pmos4 -608 -144 R0
SYMATTR InstName M3
SYMATTR Value2 l=32e-9 w=640e-9 ad=51200e-18 as=51200e-18 pd=960e-9 ps=960e-9
SYMBOL pmos4 608 -64 R180
SYMATTR InstName M4
SYMATTR Value2 l=32e-9 w=640e-9 ad=51200e-18 as=51200e-18 pd=960e-9 ps=960e-9
SYMBOL pmos4 -96 -48 R180
SYMATTR InstName M5
SYMATTR Value2 l=32e-9 w=640e-9 ad=51200e-18 as=51200e-18 pd=960e-9 ps=960e-9
SYMBOL pmos4 96 -48 M180
SYMATTR InstName M6
SYMATTR Value2 l=32e-9 w=640e-9 ad=51200e-18 as=51200e-18 pd=960e-9 ps=960e-9
SYMBOL pmos4 -336 64 M270
SYMATTR InstName M8
SYMATTR Value2 l=32e-9 w=640e-9 ad=51200e-18 as=51200e-18 pd=960e-9 ps=960e-9
SYMBOL pmos4 352 48 R270
SYMATTR InstName M10
SYMATTR Value2 l=32e-9 w=640e-9 ad=51200e-18 as=51200e-18 pd=960e-9 ps=960e-9
TEXT -616 408 Left 2 !.tran 0 15e-10 0 1e-11
TEXT -784 264 Left 2 !.inc 32nm_bulk.pm
