Version 4
SHEET 1 1184 680
WIRE 1120 -16 192 -16
WIRE 1120 48 1120 -16
WIRE 192 96 192 64
WIRE 368 96 192 96
WIRE 192 112 192 96
WIRE 192 144 192 112
WIRE 368 144 368 96
WIRE 240 192 192 192
WIRE 80 224 0 224
WIRE 96 224 80 224
WIRE 144 224 96 224
WIRE 80 240 80 224
WIRE 192 304 192 240
WIRE 192 304 0 304
WIRE 240 304 240 192
WIRE 240 304 192 304
WIRE 336 304 240 304
WIRE 368 304 368 224
WIRE 368 304 336 304
WIRE 1120 304 1120 128
WIRE 1120 304 368 304
WIRE 336 352 336 304
FLAG 336 352 0
FLAG 192 112 d
FLAG 96 224 g
SYMBOL res 176 -32 R0
SYMATTR InstName R1
SYMATTR Value 12e3
SYMBOL voltage 1120 32 R0
WINDOW 123 0 0 Left 0
WINDOW 39 0 0 Left 0
SYMATTR InstName V1
SYMATTR Value 1
SYMBOL voltage 0 208 R0
WINDOW 123 0 0 Left 0
WINDOW 39 0 0 Left 0
SYMATTR InstName V2
SYMATTR Value PULSE(0 1 0 1e-12 1e-12 5e-9 10e-9 5)
SYMBOL nmos4 144 144 R0
SYMATTR InstName M1
SYMATTR Value2 l=32e-9 w=320e-9 ad=51200e-18 as=51200e-18 pd=960e-9 ps=960e-9
SYMBOL res 384 240 R180
WINDOW 0 36 76 Left 2
WINDOW 3 36 40 Left 2
SYMATTR InstName R2
SYMATTR Value {R}
TEXT -32 376 Left 2 !.tran 0 5e-8 0 1e-10
TEXT -24 464 Left 2 !.step param R 10k 100k 10k
TEXT -1096 -16 Left 2 !.inc 32nm_bulk.pm
